%nprocshared=20
%mem=16GB
%chk=nN.chk
#P opt  b3lyp/6-311G(d,p) nosymm 

TITLE

0 1
 S                  1.44708000   -7.36893000   -1.31906000
 F                  1.15094000    5.12898000   -1.64544000
 N                 -5.34305000   -1.61336000   -2.91219000
 S                  0.53766500   -3.10290000   -1.74842000
 F                 -1.92173000    5.86062000   -1.94811000
 C                  2.88575000   -5.35786000   -1.78185000
 H                  3.12470000   -4.47539000   -2.03381000
 C                  3.98628000   -9.89402000   -0.92914500
 H                  3.12867000  -10.25650000   -0.74518900
 C                  5.63918000   -4.93388000   -3.72833000
 H                  5.47868000   -4.23488000   -3.09850000
 O                 -1.23705000   -6.53223000   -1.52959000
 C                  5.94582000   -7.24886000   -4.29614000
 H                  5.93093000   -8.16859000   -4.05364000
 C                  5.28004000   -6.57350000   -1.87276000
 O                  0.76449300   -0.51777600   -1.57578000
 C                  5.66859000   -5.57922000    0.42609900
 H                  4.79287000   -5.86167000    0.66783100
 C                  4.08500000   -8.57332000   -1.21195000
 C                 -1.79362000   -4.14971000   -1.76313000
 H                 -2.73894000   -4.23590000   -1.79138000
 C                  5.13302000  -10.77570000   -0.89676600
 C                  0.41795100   -4.81382000   -1.68840000
 C                  3.81616000   -6.32212000   -1.61516000
 C                  5.65179000   -6.22832000   -3.31505000
 C                  3.20499000   -7.49274000   -1.43705000
 C                  6.11594000   -5.77058000   -0.85276400
 C                 -0.96401700   -5.21903000   -1.62940000
 C                  1.51848000   -5.72555000   -1.55970000
 C                 -1.13624000   -2.88154000   -1.84060000
 C                 -0.42005100    1.74468000   -1.79250000
 C                 -2.00364000   -1.74843000   -1.95201000
 H                 -2.93334000   -1.94729000   -1.93428000
 C                  5.87861000   -4.63372000   -5.12720000
 H                  5.79431000   -3.74254000   -5.44843000
 C                 -0.23102800    0.14257600   -1.77924000
 C                 -2.57071000   -6.97497000   -1.56183000
 H                 -2.93740000   -6.84477000   -2.47592000
 H                 -3.11445000   -6.43693000   -0.93563200
 C                 -4.69407000   -0.68286400   -2.87682000
 C                  7.72684000   -4.55493000    1.00665000
 C                 -1.70331000   -0.47275200   -2.07457000
 C                  6.24616000   -6.86241000   -5.58378000
 H                  6.48775000   -7.53139000   -6.22108000
 C                 -0.08401020    3.87206000   -1.72886000
 C                  0.63007600    2.50634000   -1.63868000
 H                  1.53856000    2.28684000   -1.49212000
 C                  7.35929000   -5.29032000   -1.25529000
 H                  7.66018000   -5.33441000   -2.15083000
 C                  6.21255000   -5.60924000   -5.97850000
 C                  6.45408000   -5.00517000    1.33252000
 H                  6.14121000   -4.90229000    2.23005000
 C                 -1.78522000    1.90226000   -2.05627000
 C                 -2.66732000    0.78792000   -2.27536000
 C                  8.59634000   -3.77826000    2.10236000
 H                  8.28292000   -4.03760000    3.00849000
 H                  9.54488000   -4.05182000    2.02382000
 C                  8.16999000   -4.72002000   -0.17418200
 H                  9.06436000   -4.46113000   -0.37028600
 C                  6.38687000   -5.18151000   -7.50153000
 H                  5.80702000   -4.41254000   -7.72118000
 H                  6.17668000   -5.93506000   -8.10651000
 C                 -1.38617000    4.05591000   -2.00670000
 C                 -2.26828000    3.11791000   -2.08709000
 H                 -3.20066000    3.29429000   -2.16555000
 C                 -3.90647000    0.41272000   -2.78920000
 N                 -5.22963000    2.59638000   -3.33975000
 C                 -4.68357000    1.68840000   -2.99013000
 S                  9.05420000  -11.39110000   -1.02633000
 F                  9.35033000  -23.88900000   -0.69994700
 N                 15.84430000  -17.14660000    0.56679800
 S                  9.96361000  -15.65710000   -0.59696700
 F                 12.42300000  -24.62060000   -0.39727700
 C                  7.61552000  -13.40210000   -0.56353600
 H                  7.37658000  -14.28460000   -0.31157800
 C                  6.51499000   -8.86598000   -1.41624000
 H                  7.37261000   -8.50346000   -1.60020000
 C                  4.86209000  -13.82610000    1.38295000
 H                  5.02259000  -14.52510000    0.75311500
 O                 11.73830000  -12.22780000   -0.81580100
 C                  4.55545000  -11.51110000    1.95075000
 H                  4.57034000  -10.59140000    1.70825000
 C                  5.22123000  -12.18650000   -0.47262700
 O                  9.73678000  -18.24220000   -0.76961300
 C                  4.83269000  -13.18080000   -2.77149000
 H                  5.70841000  -12.89830000   -3.01322000
 C                  6.41628000  -10.18670000   -1.13344000
 C                 12.29490000  -14.61030000   -0.58226100
 H                 13.24020000  -14.52410000   -0.55401000
 C                  5.36825000   -7.98426000   -1.44862000
 C                 10.08330000  -13.94620000   -0.65699200
 C                  6.68511000  -12.43790000   -0.73022400
 C                  4.84949000  -12.53170000    0.96966000
 C                  7.29629000  -11.26730000   -0.90833600
 C                  4.38533000  -12.98940000   -1.49262000
 C                 11.46530000  -13.54100000   -0.71598500
 C                  8.98279000  -13.03440000   -0.78568500
 C                 11.63750000  -15.87850000   -0.50479000
 C                 10.92130000  -20.50470000   -0.55288400
 C                 12.50490000  -17.01160000   -0.39337900
 H                 13.43460000  -16.81270000   -0.41111300
 C                  4.62266000  -14.12630000    2.78181000
 H                  4.70696000  -15.01750000    3.10305000
 C                 10.73230000  -18.90260000   -0.56614700
 C                 13.07200000  -11.78500000   -0.78356000
 H                 13.43870000  -11.91520000    0.13053500
 H                 13.61570000  -12.32310000   -1.40976000
 C                 15.19530000  -18.07710000    0.53143300
 C                  2.77444000  -14.20510000   -3.35204000
 C                 12.20460000  -18.28720000   -0.27082100
 C                  4.25512000  -11.89760000    3.23839000
 H                  4.01352000  -11.22860000    3.87569000
 C                 10.58530000  -22.63210000   -0.61653200
 C                  9.87120000  -21.26630000   -0.70670500
 H                  8.96271000  -21.04680000   -0.85326900
 C                  3.14198000  -13.46970000   -1.09010000
 H                  2.84110000  -13.42560000   -0.19455600
 C                  4.28872000  -13.15080000    3.63311000
 C                  4.04719000  -13.75480000   -3.67791000
 H                  4.36007000  -13.85770000   -4.57544000
 C                 12.28650000  -20.66230000   -0.28911500
 C                 13.16860000  -19.54790000   -0.07002720
 C                  1.90493000  -14.98170000   -4.44775000
 H                  2.21835000  -14.72240000   -5.35388000
 H                  0.95639300  -14.70820000   -4.36921000
 C                  2.33128000  -14.04000000   -2.17121000
 H                  1.43691000  -14.29890000   -1.97510000
 C                  4.11440000  -13.57850000    5.15614000
 H                  4.69426000  -14.34750000    5.37579000
 H                  4.32459000  -12.82490000    5.76112000
 C                 11.88740000  -22.81590000   -0.33869000
 C                 12.76950000  -21.87790000   -0.25830200
 H                 13.70190000  -22.05430000   -0.17983800
 C                 14.40770000  -19.17270000    0.44380700
 N                 15.73090000  -21.35640000    0.99435800
 C                 15.18480000  -20.44840000    0.64473800
 H                 -2.70512000   -8.09773000   -1.70653000
 H                  8.39127000   -2.66000000    2.01857000
 H                  1.85578000  -16.11730000   -4.53574000
 H                 13.11170000  -10.64870000   -0.70189300
 H                  7.43521000   -4.92627000   -7.86957000
 H                  3.36613000  -13.89160000    5.95718000


