%nprocshared=20
%mem=16GB
#P polar  b3lyp/6-311G(d,p) nosymm 

TITLE

1 2
S          1.43831       -7.42851       -1.18615
F          1.00699        4.76428       -3.17692
N         -5.38969       -1.51219       -1.62925
S          0.52177       -3.13007       -1.83017
F         -1.57228        5.44730       -3.08395
C          2.87411       -5.27384       -1.66548
H          3.14267       -4.24626       -1.86845
C          3.96469       -9.97492       -0.94761
H          2.98280      -10.40294       -0.78587
C          5.88157       -4.70800       -3.40700
H          5.82558       -3.97152       -2.61381
O         -1.25213       -6.52069       -1.12440
C          5.77704       -6.97849       -4.16676
H          5.62005       -8.03492       -3.98754
C          5.28710       -6.49125       -1.68692
O          0.70299       -0.50160       -2.28111
C          5.48895       -5.41813        0.63406
H          4.43696       -5.61515        0.80301
C          4.11544       -8.59783       -1.21189
C         -1.84288       -4.15840       -1.47190
H         -2.91644       -4.23477       -1.37460
C          5.09752      -10.74963       -0.90271
C          0.39008       -4.85321       -1.53264
C          3.77471       -6.32246       -1.55785
C          5.69108       -6.06532       -3.11465
C          3.15858       -7.55255       -1.30279
C          6.07941       -5.75674       -0.58609
C         -0.95636       -5.23267       -1.36291
C          1.54078       -5.68102       -1.48715
C         -1.21730       -2.93383       -1.72519
C         -0.50738        1.56353       -2.52727
C         -2.00696       -1.75175       -1.85893
H         -3.05504       -1.99004       -1.73643
C          6.15991       -4.28806       -4.70160
H          6.30475       -3.23004       -4.89507
C         -0.34641        0.11664       -2.30038
C         -2.63083       -6.88390       -0.95838
H         -3.20004       -6.65913       -1.86399
H         -3.06496       -6.36587       -0.09938
C         -4.77464       -0.55500       -1.83681
C          7.59578       -4.55700        1.49087
C         -1.71116       -0.43739       -2.10017
C          6.05934       -6.55151       -5.46368
H          6.12178       -7.28650       -6.25938
C          0.10410        3.81019       -2.94728
C          0.49295        2.49681       -2.76120
H          1.53772        2.21502       -2.79769
C          7.44467       -5.49388       -0.74875
H          7.93332       -5.73238       -1.68606
C          6.25900       -5.20218       -5.75772
C          6.23484       -4.82729        1.65104
H          5.74577       -4.57217        2.58546
C         -1.86977        1.90210       -2.47472
C         -2.66507        0.68040       -2.20937
C          8.39499       -3.88511        2.57945
H          7.96242       -4.07049        3.56467
H          9.42916       -4.23657        2.59008
C          8.18552       -4.90677        0.27146
H          9.24132       -4.71144        0.11362
C          6.58808       -4.73995       -7.15525
H          6.01905       -3.84591       -7.42245
H          6.36976       -5.51369       -7.89346
C         -1.25157        4.16675       -2.89804
C         -2.24979        3.23486       -2.66452
H         -3.27213        3.58136       -2.64017
C         -4.03602        0.63777       -2.09321
N         -5.56311        2.70761       -2.31432
C         -4.86487        1.79141       -2.21824
S          9.06228      -11.33234       -1.15644
F          9.49356      -23.52512        0.83417
N         15.89043      -17.24876       -0.71330
S          9.97884      -15.63079       -0.51244
F         12.07283      -24.20816        0.74123
C          7.62649      -13.48702       -0.67712
H          7.35793      -14.51460       -0.47415
C          6.53590       -8.78594       -1.39497
H          7.51779       -8.35792       -1.55672
C          4.61890      -14.05287        1.06436
H          4.67480      -14.78933        0.27114
O         11.75272      -12.24015       -1.21818
C          4.72365      -11.78241        1.82420
H          4.88072      -10.72599        1.64501
C          5.21349      -12.26962       -0.65567
O          9.79761      -18.25922       -0.06153
C          5.01161      -13.34267       -2.97668
H          6.06358      -13.14560       -3.14566
C          6.38515      -10.16304       -1.13069
C         12.34348      -14.60244       -0.87069
H         13.41704      -14.52607       -0.96798
C          5.40307       -8.01123       -1.43988
C         10.11051      -13.90764       -0.80996
C          6.72588      -12.43840       -0.78474
C          4.80951      -12.69556        0.77206
C          7.34201      -11.20830       -1.03980
C          4.42119      -13.00413       -1.75650
C         11.45695      -13.52817       -0.97968
C          8.95982      -13.07984       -0.85544
C         11.71790      -15.82701       -0.61741
C         11.00796      -20.32437        0.18461
C         12.50757      -17.00910       -0.48367
H         13.55565      -16.77080       -0.60615
C          4.34054      -14.47283        2.35895
H          4.19561      -15.53084        2.55239
C         10.84700      -18.87748       -0.04226
C         13.13143      -11.87692       -1.38412
H         13.70059      -12.10173       -0.47850
H         13.56560      -12.39491       -2.24312
C         15.27526      -18.20587       -0.50570
C          2.90479      -14.20388       -3.83343
C         12.21176      -18.32345       -0.24244
C          4.44134      -12.20942        3.12110
H          4.37897      -11.47444        3.91684
C         10.39646      -22.57103        0.60456
C         10.00762      -21.25765        0.41850
H          8.96285      -20.97585        0.45498
C          3.05594      -13.26706       -1.59379
H          2.56731      -13.02861       -0.65646
C          4.24155      -13.55873        3.41511
C          4.26571      -13.93353       -3.99364
H          4.75476      -14.18860       -4.92809
C         12.37035      -20.66295        0.13208
C         13.16567      -19.44125       -0.13323
C          2.10554      -14.87576       -4.92200
H          2.53863      -14.69116       -5.90714
H          1.07162      -14.52358       -4.93320
C          2.31508      -13.85417       -2.61399
H          1.25929      -14.04955       -2.45612
C          3.91248      -14.02099        4.81263
H          4.48157      -14.91499        5.07985
H          4.13070      -13.24723        5.55084
C         11.75213      -22.92760        0.55534
C         12.75035      -21.99572        0.32186
H         13.77270      -22.34222        0.29752
C         14.53662      -19.39864       -0.24935
N         16.06367      -21.46850       -0.02823
C         15.36544      -20.55228       -0.12432
H         -2.63274       -7.95620       -0.78005
H          8.42109       -2.80021        2.43158
H          2.07862      -15.96056       -4.77359
H         13.13333      -10.80461       -1.56241
H          7.64969       -4.48684       -7.24452
H          2.85088      -14.27418        4.90186


