%nprocshared=20
%mem=16GB
#P polar  b3lyp/6-311G(d,p) nosymm 

TITLE

 -1 2
S          9.68232       15.27024        7.00218
S          8.95599       10.91599        6.37887
O         11.62805       11.92990        6.48292
O          9.36991       17.94665        7.39286
C          8.78077       12.67162        6.64557
C          9.89385       13.54286        6.74941
C          4.52204       12.13780        7.97418
C          4.33534       11.23476        9.02183
H          4.51115       10.17872        8.86176
C         11.26506       13.22468        6.67735
C         11.43079       15.54704        7.00906
C          7.42650       13.01841        6.72811
H          7.10593       14.03757        6.89665
C         10.41227       18.58230        7.46500
C          7.23571       10.72491        6.38219
C          6.57164       11.92676        6.57513
C         12.14823       16.74076        7.16685
H         13.21209       16.54863        7.11894
C          4.99549       12.78080        4.26874
H          6.06812       12.64838        4.20040
C          5.05742       11.70267        6.59500
C         11.79126       18.07748        7.36563
C         12.10328       14.32077        6.81962
H         13.18300       14.27949        6.79356
C          4.32305       12.39711        5.43096
C          4.29720       13.49618        8.23727
H          4.43332       14.22571        7.44728
C          3.92996       11.67233       10.28259
H          3.79480       10.94308       11.07539
C          5.00453       10.17319        6.36440
C          6.51718        8.26140        6.01715
C         12.69153       19.19782        7.50906
C         10.50601       20.04971        7.67524
C          6.31551        9.63519        6.24221
C         14.08895       19.20638        7.48167
C         14.89486       18.04936        7.29728
C         11.85933       20.42103        7.70221
C          4.30807       13.33950        3.19276
H          4.86301       13.63416        2.30750
C          2.25451       13.14790        4.39901
H          1.18012       13.28984        4.46862
C         11.14591       22.69242        8.04431
H         11.39664       23.73747        8.19032
C         13.01949       11.63931        6.42098
H         13.49583       12.16466        5.58643
H         13.09487       10.56461        6.26510
C          2.93659       12.59221        5.47556
H          2.38461       12.32268        6.36829
C          2.92664       13.53200        3.23385
C         12.18382       21.76584        7.88995
H         13.20658       22.10920        7.91925
C          9.80699       22.30479        8.01476
H          9.02620       23.04718        8.13741
N         15.54759       21.31707        7.75705
C         14.86972       20.38443        7.63606
C          9.47641       20.96000        7.82697
H          8.44784       20.61887        7.79784
N         15.59121       17.13393        7.14998
C          3.69942       13.02260       10.54442
C          3.89511       13.92782        9.49506
H          3.73433       14.98814        9.66506
H         13.52111       11.90976        7.35613
C          2.17732       14.11695        2.06089
C          3.23961       13.49561       11.90239
H          1.64035       13.33849        1.50778
H          2.85608       14.60942        1.36125
H          1.43652       14.85247        2.38672
H          3.39089       12.72663       12.66302
H          2.17331       13.74749       11.89457
H          3.78193       14.39193       12.21596
H          7.52029        7.85948        5.93373
S          0.73070        2.35075        5.26903
S          1.45703        6.70500        5.89235
O         -1.21503        5.69109        5.78830
O          1.04311       -0.32566        4.87834
C          1.63225        4.94937        5.62564
C          0.51917        4.07813        5.52180
C          5.89098        5.48320        4.29704
C          6.07777        6.38626        3.24943
H          5.90204        7.44231        3.40953
C         -0.85204        4.39630        5.59387
C         -1.01776        2.07395        5.26214
C          2.98653        4.60258        5.54311
H          3.30709        3.58342        5.37457
C          0.00075       -0.96130        4.80619
C          3.17731        6.89608        5.88903
C          3.84138        5.69423        5.69609
C         -1.73521        0.88024        5.10435
H         -2.79907        1.07236        5.15226
C          5.41750        4.84009        8.00244
H          4.34486        4.97243        8.07073
C          5.35561        5.91832        5.67622
C         -1.37824       -0.45648        4.90557
C         -1.69026        3.30022        5.45160
H         -2.76998        3.34150        5.47766
C          6.08997        5.22389        6.84027
C          6.11571        4.12480        4.03391
H          5.97953        3.39526        4.82387
C          6.48314        5.94870        1.98866
H          6.61837        6.67797        1.19589
C          5.40850        7.44780        5.90683
C          3.89585        9.35959        6.25408
C         -2.27850       -1.57683        4.76213
C         -0.09298       -2.42871        4.59594
C          4.09751        7.98581        6.02901
C         -3.67592       -1.58538        4.78952
C         -4.48184       -0.42836        4.97391
C         -1.44630       -2.80003        4.56898
C          6.10491        4.28141        9.07844
H          5.54995        3.98668        9.96365
C          8.15851        4.47321        7.87229
H          9.23292        4.33136        7.80273
C         -0.73289       -5.07142        4.22686
H         -0.98361       -6.11647        4.08084
C         -2.60647        5.98167        5.85024
H         -3.08281        5.45633        6.68479
H         -2.68185        7.05638        6.00613
C          7.47645        5.02889        6.79573
H          8.02845        5.29850        5.90305
C          7.48636        4.08901        9.03740
C         -1.77080       -4.14485        4.38122
H         -2.79355       -4.48820        4.35192
C          0.60603       -4.68379        4.25641
H          1.38683       -5.42618        4.13376
N         -5.13457       -3.69607        4.51412
C         -4.45670       -2.76343        4.63512
C          0.93661       -3.33901        4.44421
H          1.96518       -2.99788        4.47334
N         -5.17818        0.48706        5.12124
C          6.71358        4.59842        1.72678
C          6.51780        3.69318        2.77610
H          6.67850        2.63285        2.60607
H         -3.10808        5.71124        4.91509
C          8.23566        3.50406       10.21037
C          7.17338        4.12542        0.36881
H          8.77268        4.28252       10.76346
H          7.55688        3.01165       10.91003
H          8.97642        2.76850        9.88455
H          7.02220        4.89445       -0.39179
H          8.23965        3.87344        0.37665
H          6.63097        3.22917        0.05519
H          2.89273        9.76151        6.33750


