%nprocshared=20
%mem=16GB
#P polar  b3lyp/6-311G(d,p) nosymm 

TITLE

 -1  2
S          1.74383       -6.12719       18.15719
S          1.34219       -1.83817       15.06870
S          1.60706        2.35584       15.75226
S          2.03912       -4.66216       23.24283
S          1.62511       -0.95794       25.30069
N          1.89974       -5.51546       19.69048
N          1.54967       -4.70293       17.33061
O          1.66301        5.02454       15.31086
N          1.67226       -0.10145       18.51310
C          1.80349       -4.19930       19.58653
N          1.60927       -1.17781       21.61075
O          1.47441        0.85919       27.29942
C          1.60296       -3.73170       18.22850
C          1.82672       -3.25208       20.65863
C          1.46133       -1.57695       16.79341
F          1.14120        4.35934       31.32605
C          1.54593        0.63828       16.03006
F          1.82213       10.27543       14.32175
C          1.53559       -2.32546       17.97328
C          1.50229        0.37482       28.42194
C          1.43271       -0.07993       14.82202
C          1.67880       -1.85363       20.38967
C          1.63939       -1.39016       19.05231
C          1.74109       -2.13107       24.01958
F          1.75684       10.28884       11.63710
C          1.89013       -3.39316       22.04930
C          1.58034        4.46397       12.94912
C          1.50410        3.06440       12.97260
H          1.43370        2.60467       11.99678
C          1.55172       -0.21844       17.13654
C          1.75019       -2.11807       22.62030
C          1.64511        5.33862       14.12913
C          1.89327       -3.43874       24.52444
N          1.52330        2.50189        9.53696
F          1.25530        2.71071       33.44289
C          1.40086        0.70175       13.67579
C          1.49550        2.09347       13.97988
C          1.61980       -1.03912       28.80744
C          1.59142        5.29908       11.77080
C          1.54187        3.57956        9.96462
C          1.60118       -1.11376       30.24968
C          1.74240       -2.11973       27.92290
C          1.66713       -2.23977       31.07442
C          1.76861       -2.25740       26.53087
C          1.68251        6.73557       13.62627
C          1.64839        6.71808       12.22520
C          1.67410        7.93027       11.53276
H          1.65098        8.00987       10.45635
C          1.73203        9.10437       12.27487
C          1.76581        9.10052       13.66753
C          1.74147        7.90248       14.36655
H          1.76759        7.88567       15.44915
C          1.91348       -3.53424       25.90875
C          1.48340        0.27825       30.77100
C          1.42298        1.15783       29.68144
C          1.30795        2.52901       29.82224
C          1.25254        3.03507       31.11273
C          1.31171        2.17742       32.20889
C          1.42628        0.79946       32.06506
C          1.57323        5.85938        9.35462
N          1.82638       -4.68709       30.27322
C          1.75561       -3.57797       30.60409
N          1.57600        6.59026        8.45498
C          1.64565       -2.16868       32.49410
C          2.07342       -4.82491       26.66076
C          1.56711        4.92388       10.42503
H          1.84235       -3.08211       28.40492
H          1.26283        3.18491       28.96158
H          1.46640        0.19657       32.95974
C          2.21505        1.10505       19.13200
C          1.01888        0.13353       21.86601
N          1.63195       -2.15231       33.65302
C          1.27528        0.14948       12.28432
H          2.11937       -5.66885       25.97048
H          1.24545       -5.00171       27.35196
H          2.98881       -4.83207       27.25941
H          1.42974        1.78486       19.46983
H          2.83194        1.62755       18.40010
H          2.84896        0.83459       19.97472
H          0.39323        0.06914       22.75690
H          0.38472        0.42211       21.02952
H          1.77682        0.90244       22.03121
H          1.27667       -0.94164       12.30229
H          2.09407        0.47527       11.63794
H          0.34781        0.47491       11.80424


