%mem=16GB
#P polar   b3lyp/6-311G(d,p) nosymm

ITIC-cut

0 1
C         -8.64987        0.18843        0.03968
H         -8.83379        1.25488        0.07059
C         -9.78360       -0.59675        0.03045
C        -11.16569       -0.09529        0.05269
C         -9.84869       -2.08346        0.02172
O         -8.93283       -2.88826       -0.00938
C        -12.06596       -1.27727        0.08660
C        -11.28400       -2.44137        0.06389
C        -13.45860       -1.39847        0.13172
H        -14.11027       -0.53890        0.15256
C        -14.01740       -2.67707        0.15146
H        -15.09620       -2.77564        0.18718
C        -11.83461       -3.71336        0.08176
H        -11.18633       -4.58135        0.06157
C        -13.22222       -3.82634        0.12620
H        -13.68947       -4.80416        0.14173
C        -11.60469        1.21378        0.03275
C        -12.98300        1.57935        0.05880
N        -14.08655        1.92534        0.07948
C        -10.75079        2.35447       -0.02236
N        -10.09673        3.30804       -0.06767
C         -7.26161       -0.10418        0.02226
S         -6.18217        1.32173        0.06977
C         -6.52332       -1.28782       -0.03562
H         -7.00688       -2.25156       -0.07250
C         -5.15053       -1.04564       -0.03722
C         -4.78170        0.31502        0.01674
S         -3.74463       -2.10258       -0.08970
C         -3.38562        0.50419        0.03031
C         -2.71265       -0.70016       -0.02507
C         -1.28319       -0.49732       -0.02202
C         -1.06668        0.90257        0.02004
C         -2.40482        1.67565        0.05464
C          0.22004        1.40875        0.04594
H          0.40414        2.47576        0.08386
C          1.28319        0.49738        0.02214
C         -0.22004       -1.40869       -0.04582
H         -0.40414       -2.47570       -0.08375
C          1.06668       -0.90251       -0.01991
C          2.40482       -1.67559       -0.05451
C          2.71265        0.70022        0.02518
C          3.38562       -0.50413       -0.03020
S          3.74463        2.10264        0.08980
C          4.78170       -0.31496       -0.01665
S          6.18217       -1.32167       -0.06969
C          5.15053        1.04570        0.03730
C          6.52333        1.28788        0.03569
H          7.00688        2.25162        0.07256
C          7.26161        0.10423       -0.02219
C          8.64987       -0.18838       -0.03963
H          8.83377       -1.25484       -0.07053
C          9.78363        0.59676       -0.03040
C         11.16569        0.09522       -0.05266
C          9.84881        2.08346       -0.02165
O          8.93300        2.88832        0.00946
C         12.06603        1.27714       -0.08654
C         11.28413        2.44129       -0.06381
C         13.45868        1.39827       -0.13165
H         14.11030        0.53867       -0.15250
C         14.01755        2.67684       -0.15136
H         15.09636        2.77535       -0.18707
C         11.83482        3.71325       -0.08165
H         11.18658        4.58127       -0.06145
C         13.22244        3.82615       -0.12608
H         13.68974        4.80395       -0.14158
C         11.60460       -1.21388       -0.03276
C         12.98289       -1.57956       -0.05883
N         14.08641       -1.92563       -0.07952
C         10.75062       -2.35451        0.02230
N         10.09647       -3.30802        0.06758
C          2.64401       -2.53588        1.20539
C          3.63036       -3.53003        1.20251
H          4.17175       -3.75218        0.29063
C          3.92074       -4.25534        2.35286
H          4.69323       -5.01681        2.31637
C          3.23976       -4.01901        3.55130
C          2.26298       -3.02145        3.55314
H          1.71998       -2.80667        4.46801
C          1.96952       -2.29059        2.40393
H          1.20930       -1.52088        2.45124
C          2.46564       -2.49050       -1.36223
C          3.02954       -1.96335       -2.52583
H          3.48912       -0.98259       -2.50822
C          3.00862       -2.67947       -3.72110
H          3.45932       -2.24250       -4.60635
C          2.42383       -3.94415       -3.79990
C          1.85400       -4.46740       -2.63399
H          1.38927       -5.44808       -2.65972
C          1.87507       -3.75821       -1.43859
H          1.43984       -4.20487       -0.55241
C         -2.46565        2.49053        1.36237
C         -1.87502        3.75824        1.43875
H         -1.43976        4.20489        0.55258
C         -1.85397        4.46742        2.63414
H         -1.38921        5.44809        2.65989
C         -2.42386        3.94418        3.80004
C         -3.00871        2.67955        3.72121
H         -3.45949        2.24261        4.60644
C         -3.02962        1.96342        2.52593
H         -3.48926        0.98269        2.50830
C         -2.64401        2.53596       -1.20524
C         -3.63034        3.53013       -1.20233
H         -4.17171        3.75228       -0.29045
C         -3.92072        4.25547       -2.35267
H         -4.69319        5.01696       -2.31616
C         -3.23976        4.01915       -3.55112
C         -2.26300        3.02157       -3.55299
H         -1.72001        2.80680       -4.46787
C         -1.96954        2.29068       -2.40380
H         -1.20934        1.52095       -2.45113
C          3.53801       -4.82982        4.78853
H          3.02486       -5.79718        4.75802
H          3.21011       -4.31234        5.69249
H          4.60766       -5.03269        4.88264
C          2.42942       -4.73447       -5.08536
H          3.23717       -5.47431       -5.08773
H          2.57604       -4.08564       -5.95129
H          1.49108       -5.27760       -5.22329
C         -2.42929        4.73451        5.08551
H         -3.23445        5.47715        5.08630
H         -1.48934        5.27440        5.22529
H         -2.57980        4.08616        5.95112
C         -3.53803        4.82997       -4.78833
H         -3.20963        4.31277       -5.69226
H         -3.02536        5.79757       -4.75755
H         -4.60776        5.03234       -4.88273


