%nprocshared=20
%mem=16GB
%chk=nN.chk
#P opt  b3lyp/6-311G(d,p) nosymm 

TITLE

0  1
S          1.74600       -5.78400       18.18400
S          1.69200       -1.67600       15.17400
S          1.86600        2.50400       15.60000
S          1.90100       -4.49000       23.19700
S          1.75700       -0.93200       25.43700
N          1.81300       -5.22900       19.78300
N          1.65500       -4.37200       17.39800
O          2.07400        5.13000       15.06100
N          1.78700        0.20600       18.50400
C          1.83100       -3.81100       19.64900
N          1.65500       -0.96200       21.76900
O          1.94600        0.77800       27.52400
C          1.64200       -3.44500       18.34700
C          1.77300       -2.94200       20.70400
C          1.70700       -1.36900       16.89800
F          1.66900        4.10600       31.65300
C          1.83100        0.86600       15.95500
F          1.68500       10.28200       13.93200
C          1.64300       -2.03900       18.12600
C          1.81400        0.13100       28.55900
C          1.76900        0.01800       14.84300
C          1.71600       -1.58200       20.50800
C          1.73000       -1.03300       19.10900
C          1.76500       -2.02200       24.15200
F          1.38400       10.19600       11.19600
C          1.77600       -3.13100       22.04900
C          1.77800        4.48700       12.72100
C          1.73500        3.08200       12.83500
H          1.59700        2.43800       11.90500
C          1.81000       -0.02200       17.12400
C          1.75600       -1.98800       22.74900
C          1.91100        5.28600       13.88900
C          1.84400       -3.38700       24.45900
N          1.54900        2.32500        9.46700
F          1.37000        2.39400       33.71100
C          1.73100        0.75000       13.65900
C          1.82600        2.11400       13.90600
C          1.70500       -1.25000       28.90800
C          1.64400        5.25100       11.45400
C          1.56800        3.43000        9.82700
C          1.56900       -1.30900       30.38700
C          1.80200       -2.17600       27.93500
C          1.44600       -2.44100       30.96400
C          1.84400       -2.27400       26.52100
C          1.76700        6.71700       13.29000
C          1.61800        6.67900       11.90700
C          1.49300        7.86000       11.18700
H          1.37100        7.82600       10.05400
C          1.51800        9.08300       11.84800
C          1.66600        9.12300       13.23000
C          1.79000        7.94100       13.95100
H          1.91000        7.97400       15.08400
C          1.84800       -3.53300       25.88400
C          1.60600        0.10800       30.87900
C          1.75000        0.99000       29.81500
C          1.76000        2.36100       30.04400
C          1.62400        2.84900       31.33900
C          1.47800        1.96700       32.40300
C          1.46900        0.59600       32.17200
C          1.44300        5.85800        9.23800
N          1.37100       -4.84600       30.10500
C          1.38400       -3.76900       30.47500
N          1.34800        6.26600        8.17800
C          1.37900       -2.35200       32.58900
C          1.91800       -4.96100       26.56300
C          1.56500        4.76200       10.31800
H          1.88200       -3.28100       28.20500
H          1.87900        3.08300       29.17000
H          1.34800       -0.12800       33.04500
C          1.15700        1.26800       19.37300
C          0.92600        0.27800       22.23100
N          1.33200       -2.29000       33.72500
C          1.68000        0.03800       12.38100
H          1.51500       -5.74500       25.84000
H          1.28800       -4.96100       27.51300
H          3.00000       -5.20500       26.82400
H          0.47500        0.77500       20.14200
H          0.54600        1.97800       18.72300
H          1.97500        1.85400       19.91000
H          0.10800       -0.01600       22.96900
H          0.45900        0.80100       21.33300
H          1.66200        0.98300       22.74100
H          2.19500       -0.97300       12.48900
H          2.21300        0.65200       11.58200
H          0.59300       -0.11900       12.07700


