%nprocshared=20
%mem=16GB
%chk=aA.chk
#P opt  b3lyp/6-311G(d,p) nosymm 

TITLE

 -1 2
S          9.68093       15.26245        6.99449
S          8.94718       10.92391        6.37221
O         11.61654       11.92528        6.48493
O          9.37567       17.91648        7.38092
C          8.76810       12.67192        6.63621
C          9.89309       13.54673        6.74440
C          4.52229       12.14073        7.96990
C          4.35781       11.24176        9.02476
H          4.54481       10.18646        8.87154
C         11.25707       13.21620        6.67729
C         11.42114       15.53257        7.00990
C          7.42273       13.02346        6.71613
H          7.09946       14.04199        6.88411
C         10.40837       18.56191        7.46123
C          7.23294       10.73474        6.37225
C          6.56347       11.92861        6.56168
C         12.14744       16.73441        7.17344
H         13.21023       16.53464        7.13011
C          4.97600       12.76384        4.25343
H          6.04769       12.62741        4.17556
C          5.05073       11.70312        6.58806
C         11.79307       18.05339        7.36875
C         12.09718       14.31835        6.82509
H         13.17712       14.27591        6.80458
C          4.31054       12.39104        5.42311
C          4.28445       13.49804        8.22615
H          4.39957       14.22407        7.42954
C          3.96013       11.68224       10.28681
H          3.84121       10.95669       11.08526
C          5.00346       10.17375        6.36336
C          6.51849        8.26698        6.01268
C         12.69987       19.19091        7.52086
C         10.50440       20.02367        7.67256
C          6.30885        9.63430        6.23620
C         14.08227       19.19475        7.50103
C         14.88069       18.02813        7.31919
C         11.85617       20.40229        7.70891
C          4.28257       13.31583        3.17789
H          4.83164       13.60249        2.28662
C          2.23683       13.13646        4.39957
H          1.16362       13.28216        4.47570
C         11.13735       22.66915        8.04868
H         11.38147       23.71468        8.19744
C         13.01031       11.62376        6.42850
H         13.49101       12.14481        5.59465
H         13.07620       10.54912        6.27262
C          2.92470       12.58768        5.47595
H          2.37804       12.32778        6.37478
C          2.90163       13.51125        3.22692
C         12.17709       21.74894        7.90034
H         13.19816       22.09625        7.93664
C          9.79763       22.27473        8.00983
H          9.01526       23.01542        8.12841
N         15.54350       21.30387        7.78622
C         14.86740       20.37345        7.66088
C          9.46980       20.93349        7.81918
H          8.44187       20.59239        7.78366
N         15.55631       17.09965        7.17370
C          3.71610       13.03151       10.54282
C          3.89024       13.93230        9.48564
H          3.71553       14.99106        9.65032
H         13.50712       11.88873        7.36700
C          2.14558       14.09039        2.05598
C          3.26304       13.50727       11.90157
H          1.60177       13.30939        1.51366
H          2.81983       14.57513        1.34708
H          1.40986       14.83019        2.38260
H          3.43211       12.74653       12.66633
H          2.19345       13.74349       11.90080
H          3.79454       14.41383       12.20317
H          7.52215        7.86773        5.92554
S          0.73209        2.35855        5.27670
S          1.46584        6.69709        5.89900
O         -1.20352        5.69571        5.78634
O          1.03734       -0.29548        4.89023
C          1.64492        4.94908        5.63501
C          0.51993        4.07426        5.52682
C          5.89073        5.48028        4.30131
C          6.05522        6.37925        3.24646
H          5.86822        7.43455        3.39968
C         -0.84405        4.40480        5.59395
C         -1.00812        2.08842        5.26133
C          2.99029        4.59754        5.55508
H          3.31356        3.57902        5.38710
C          0.00464       -0.94091        4.80994
C          3.18007        6.88626        5.89896
C          3.84954        5.69240        5.70952
C         -1.73442        0.88659        5.09779
H         -2.79721        1.08636        5.14113
C          5.43701        4.85716        8.01778
H          4.36533        4.99359        8.09565
C          5.36229        5.91788        5.68315
C         -1.38006       -0.43239        4.90246
C         -1.68416        3.30264        5.44616
H         -2.76410        3.34508        5.46669
C          6.10248        5.22996        6.84810
C          6.12856        4.12296        4.04505
H          6.01343        3.39693        4.84166
C          6.45290        5.93877        1.98440
H          6.57183        6.66432        1.18596
C          5.40956        7.44725        5.90785
C          3.89453        9.35402        6.25853
C         -2.28686       -1.56991        4.75035
C         -0.09139       -2.40267        4.59859
C          4.10417        7.98670        6.03501
C         -3.66926       -1.57375        4.77023
C         -4.46767       -0.40713        4.95213
C         -1.44317       -2.78129        4.56227
C          6.13044        4.30517        9.09332
H          5.58137        4.01851        9.98459
C          8.17619        4.48454        7.87164
H          9.24939        4.33884        7.79551
C         -0.72435       -5.04814        4.22245
H         -0.96847       -6.09367        4.07368
C         -2.59729        5.99723        5.84280
H         -3.07797        5.47617        6.67666
H         -2.66318        7.07186        5.99870
C          7.48831        5.03332        6.79526
H          8.03498        5.29322        5.89643
C          7.51138        4.10975        9.04429
C         -1.76409       -4.12793        4.37083
H         -2.78516       -4.47524        4.33455
C          0.61536       -4.65373        4.26127
H          1.39773       -5.39441        4.14266
N         -5.13049       -3.68287        4.48509
C         -4.45440       -2.75245        4.61041
C          0.94320       -3.31248        4.45193
H          1.97113       -2.97139        4.48743
N         -5.14330        0.52134        5.09766
C          6.69692        4.58950        1.72839
C          6.52277        3.68871        2.78557
H          6.69747        2.62994        2.62088
H         -3.09412        5.73226        4.90431
C          8.26744        3.53059       10.21523
C          7.14998        4.11374        0.36963
H          8.81138        4.31157       10.75745
H          7.59317        3.04598       10.92420
H          9.00304        2.79068        9.88861
H          6.98093        4.87450       -0.39512
H          8.21957        3.87749        0.37041
H          6.61846        3.20720        0.06802
H          2.89086        9.75327        6.34567


