%nprocshared=16
%mem=16GB
%chk=molec.chk
# ub3lyp/6-311g(d,p) geom=connectivity polar

IT-4F-cut

-1 2
 C                 -8.62753600    0.64089200    0.00639800
 H                 -8.77162600    1.71330000    0.02317700
 C                 -9.81410500   -0.10536400    0.00950800
 C                -11.15149900    0.45408700    0.02440100
 C                 -9.93884500   -1.57673800    0.01248900
 O                 -9.07030900   -2.43787300   -0.00161400
 C                -12.11813000   -0.68015600    0.04889400
 C                -11.39371300   -1.87811400    0.04018500
 C                -13.51353000   -0.73329500    0.07623100
 H                -14.15011900    0.13841700    0.08500200
 C                -14.11825300   -1.98459600    0.09400000
 F                -15.46083100   -2.07031600    0.12157300
 C                -11.99286400   -3.12490000    0.05680800
 H                -11.40480100   -4.03431500    0.04894600
 C                -13.37875000   -3.16543300    0.08440000
 F                -14.03050400   -4.34284800    0.10258100
 C                -11.54623700    1.79216100    0.01351700
 C                -12.90825500    2.20151500    0.03546100
 N                -14.00429100    2.57762500    0.05312600
 C                -10.65855200    2.90313800   -0.02423800
 N                 -9.98410100    3.84516800   -0.05536100
 C                 -7.27020900    0.28800100   -0.01013000
 S                 -6.10692200    1.66112700    0.01073700
 C                 -6.57827500   -0.93733000   -0.04698200
 H                 -7.10992500   -1.87591600   -0.06373700
 C                 -5.20322600   -0.76507100   -0.05459100
 C                 -4.75265800    0.57871000   -0.02552000
 S                 -3.85241600   -1.89971100   -0.08485900
 C                 -3.35879900    0.68964100   -0.01155900
 C                 -2.73766400   -0.55455800   -0.04251100
 C                 -1.31499800   -0.42990300   -0.02892000
 C                 -1.01504800    0.96151400   -0.00163800
 C                 -2.31270600    1.80528700    0.00566700
 C                  0.29156200    1.39698700    0.03103400
 H                  0.53294600    2.45302300    0.05791300
 C                  1.31500600    0.42991400    0.02891000
 C                 -0.29155400   -1.39697700   -0.03104300
 H                 -0.53293600   -2.45301400   -0.05792300
 C                  1.01505500   -0.96150300    0.00163200
 C                  2.31271100   -1.80527800   -0.00566500
 C                  2.73767200    0.55456900    0.04249600
 C                  3.35880400   -0.68963300    0.01154600
 S                  3.85242800    1.89971900    0.08482900
 C                  4.75266400   -0.57870400    0.02549600
 S                  6.10692400   -1.66112500   -0.01076400
 C                  5.20323600    0.76507600    0.05456000
 C                  6.57828600    0.93733000    0.04694900
 H                  7.10993600    1.87591500    0.06369900
 C                  7.27021600   -0.28800300    0.01009600
 C                  8.62754300   -0.64089800   -0.00643600
 H                  8.77162900   -1.71330700   -0.02321500
 C                  9.81411400    0.10535300   -0.00954800
 C                 11.15150500   -0.45410500   -0.02444400
 C                  9.93886200    1.57672600   -0.01252300
 O                  9.07033100    2.43786600    0.00161400
 C                 12.11814300    0.68013300   -0.04890100
 C                 11.39373200    1.87809500   -0.04017900
 C                 13.51354300    0.73326500   -0.07621400
 H                 14.15012800   -0.13845000   -0.08499100
 C                 14.11827300    1.98456400   -0.09394400
 F                 15.46085200    2.07027600   -0.12149200
 C                 11.99289000    3.12487800   -0.05676400
 H                 11.40483200    4.03429600   -0.04889500
 C                 13.37877600    3.16540500   -0.08433200
 C                 11.54623700   -1.79218000   -0.01358400
 C                 12.90825200   -2.20154300   -0.03551000
 N                 14.00429900   -2.57762000   -0.05316100
 C                 10.65854300   -2.90315200    0.02412800
 N                  9.98410500   -3.84519200    0.05521300
 C                  2.48950000   -2.66046800    1.26725500
 C                  3.43625400   -3.69230700    1.29522000
 H                  3.99115500   -3.93938800    0.39814700
 C                  3.67336800   -4.41791700    2.45710200
 H                  4.41925100   -5.20650300    2.44475600
 C                  2.97520500   -4.14481500    3.63777200
 C                  2.03694300   -3.11206100    3.60931300
 H                  1.48196400   -2.86866800    4.51001600
 C                  1.79738500   -2.38037000    2.44768400
 H                  1.06581500   -1.58263100    2.46925900
 C                  2.34297600   -2.64603100   -1.29693200
 C                  2.96521700   -2.18227800   -2.45787400
 H                  3.49483600   -1.23773000   -2.44427400
 C                  2.91636300   -2.91757000   -3.64061900
 H                  3.41369200   -2.52978300   -4.52408000
 C                  2.24678500   -4.13993200   -3.70893300
 C                  1.62165500   -4.60150300   -2.54581600
 H                  1.08981000   -5.54793900   -2.56385700
 C                  1.67001300   -3.87259300   -1.36303800
 H                  1.18725300   -4.27014800   -0.47800500
 C                 -2.34298500    2.64602000    1.29694900
 C                 -1.67007800    3.87261600    1.36305500
 H                 -1.18735200    4.27020000    0.47801800
 C                 -1.62174100    4.60151900    2.54583600
 H                 -1.08993900    5.54797800    2.56388000
 C                 -2.24684000    4.13991100    3.70895700
 C                 -2.91636600    2.91752400    3.64064100
 H                 -3.41367300    2.52970900    4.52410300
 C                 -2.96519800    2.18223500    2.45789100
 H                 -3.49477700    1.23766400    2.44429100
 C                 -2.48949700    2.66050000   -1.26723600
 C                 -3.43630200    3.69229200   -1.29520200
 H                 -3.99123900    3.93932300   -0.39813700
 C                 -3.67342300    4.41791900   -2.45707100
 H                 -4.41934700    5.20646500   -2.44472700
 C                 -2.97521500    4.14488000   -3.63772900
 C                 -2.03690600    3.11216900   -3.60927200
 H                 -1.48189300    2.86882300   -4.50996700
 C                 -1.79734200    2.38046000   -2.44765500
 H                 -1.06573800    1.58275200   -2.46923100
 C                  3.21904400   -4.95288300    4.88931700
 H                  2.71047000   -5.92215200    4.84006200
 H                  2.85059200   -4.43290300    5.77633200
 H                  4.28438300   -5.15237800    5.03194800
 C                  2.22289500   -4.95269600   -4.98078800
 H                  3.00491300   -5.72008600   -4.97270100
 H                  2.39047400   -4.32374500   -5.85799600
 H                  1.26563800   -5.46466900   -5.10874100
 C                 -2.22297500    4.95267000    4.98081600
 H                 -3.00502500    5.72002700    4.97273900
 H                 -1.26573900    5.46468300    5.10876500
 H                 -2.39052100    4.32370800    5.85802200
 C                 -3.21905100    4.95297100   -4.88926000
 H                 -2.85071500    4.43294900   -5.77630000
 H                 -2.71036600    5.92218300   -4.84004200
 H                 -4.28437800    5.15258200   -5.03181900
 F                 14.03053700    4.34281600   -0.10247600

 1 2 1.0 3 1.5 22 1.5
 2
 3 4 1.0 5 1.0
 4 7 1.0 17 1.5
 5 6 2.0 8 1.0
 6
 7 8 1.5 9 1.5
 8 13 2.0
 9 10 1.0 11 1.5
 10
 11 12 1.0 15 1.5
 12
 13 14 1.0 15 1.5
 14
 15 16 1.0
 16
 17 18 1.5 20 1.5
 18 19 3.0
 19
 20 21 3.0
 21
 22 23 1.0 24 1.5
 23 27 1.0
 24 25 1.0 26 2.0
 25
 26 27 1.5 28 1.0
 27 29 1.5
 28 30 1.0
 29 30 1.5 33 1.0
 30 31 1.5
 31 32 1.5 37 1.5
 32 33 1.0 34 2.0
 33 90 1.0 100 1.0
 34 35 1.0 36 1.5
 35
 36 39 1.5 41 1.5
 37 38 1.0 39 2.0
 38
 39 40 1.0
 40 42 1.0 70 1.0 80 1.0
 41 42 1.5 43 1.0
 42 44 1.5
 43 46 1.0
 44 45 1.0 46 1.5
 45 49 1.0
 46 47 2.0
 47 48 1.0 49 1.5
 48
 49 50 1.5
 50 51 1.0 52 1.5
 51
 52 53 1.0 54 1.0
 53 56 1.0 65 1.5
 54 55 2.0 57 1.0
 55
 56 57 1.5 58 1.5
 57 62 2.0
 58 59 1.0 60 1.5
 59
 60 61 1.0 64 1.5
 61
 62 63 1.0 64 1.5
 63
 64 126 1.0
 65 66 1.5 68 1.5
 66 67 3.0
 67
 68 69 3.0
 69
 70 71 1.5 78 1.5
 71 72 1.0 73 1.5
 72
 73 74 1.0 75 1.5
 74
 75 76 1.5 110 1.0
 76 77 1.0 78 1.5
 77
 78 79 1.0
 79
 80 81 1.5 88 1.5
 81 82 1.0 83 1.5
 82
 83 84 1.0 85 1.5
 84
 85 86 1.5 114 1.0
 86 87 1.0 88 1.5
 87
 88 89 1.0
 89
 90 91 1.5 98 1.5
 91 92 1.0 93 1.5
 92
 93 94 1.0 95 1.5
 94
 95 96 1.5 118 1.0
 96 97 1.0 98 1.5
 97
 98 99 1.0
 99
 100 101 1.5 108 1.5
 101 102 1.0 103 1.5
 102
 103 104 1.0 105 1.5
 104
 105 106 1.5 122 1.0
 106 107 1.0 108 1.5
 107
 108 109 1.0
 109
 110 111 1.0 112 1.0 113 1.0
 111
 112
 113
 114 115 1.0 116 1.0 117 1.0
 115
 116
 117
 118 119 1.0 120 1.0 121 1.0
 119
 120
 121
 122 123 1.0 124 1.0 125 1.0
 123
 124
 125
 126

