%nprocshared=20
%mem=16GB
#P polar  b3lyp/6-311G(d,p) nosymm 

TITLE

1 2
S          1.43586       -7.43367       -1.18758
Cl         1.33323        5.00715       -3.22910
N         -5.39767       -1.52784       -1.63420
S          0.51482       -3.13584       -1.82788
Cl        -1.75652        5.82772       -3.12283
C          2.86928       -5.27657       -1.66352
H          3.13668       -4.24844       -1.86527
C          3.96526       -9.97682       -0.94919
H          2.98380      -10.40626       -0.78863
C          5.87652       -4.70514       -3.40254
H          5.81892       -3.96940       -2.60878
O         -1.25573       -6.52948       -1.12809
C          5.77613       -6.97519       -4.16426
H          5.62076       -8.03204       -3.98606
C          5.28381       -6.49073       -1.68433
O          0.69324       -0.50860       -2.27464
C          5.48280       -5.41972        0.63787
H          4.43105       -5.61858        0.80612
C          4.11449       -8.59930       -1.21213
C         -1.84924       -4.16778       -1.47364
H         -2.92283       -4.24553       -1.37779
C          5.09904      -10.75010       -0.90404
C          0.38474       -4.85928       -1.53255
C          3.77114       -6.32404       -1.55617
C          5.68806       -6.06303       -3.11146
C          3.15633       -7.55524       -1.30282
C          6.07443       -5.75615       -0.58234
C         -0.96166       -5.24082       -1.36478
C          1.53629       -5.68573       -1.48677
C         -1.22481       -2.94181       -1.72485
C         -0.51946        1.55710       -2.51992
C         -2.01558       -1.76114       -1.85824
H         -3.06350       -2.00100       -1.73748
C          6.15490       -4.28367       -4.69662
H          6.29808       -3.22525       -4.88911
C         -0.35631        0.10924       -2.29480
C         -2.63415       -6.89495       -0.96418
H         -3.20251       -6.66995       -1.87025
H         -3.07003       -6.37853       -0.10512
C         -4.78466       -0.56883       -1.83952
C          7.58781       -4.55601        1.49654
C         -1.72123       -0.44537       -2.09763
C          6.05849       -6.54665       -5.46066
H          6.12263       -7.28087       -6.25694
C          0.09862        3.82158       -2.93890
C          0.47170        2.49386       -2.75047
H          1.51296        2.20021       -2.78320
C          7.43934       -5.49097       -0.74406
H          7.92883       -5.72771       -1.68137
C          6.25607       -5.19676       -5.75346
C          6.22722       -4.82867        1.65578
H          5.73726       -4.57522        2.59019
C         -1.88153        1.89419       -2.46922
C         -2.67695        0.67081       -2.20677
C          8.38529       -3.88374        2.58615
H          7.95390       -4.07277        3.57120
H          9.42068       -4.23160        2.59543
C          8.17872       -4.90366        0.27711
H          9.23428       -4.70643        0.11999
C          6.58486       -4.73268       -7.15044
H          6.01151       -3.84163       -7.41841
H          6.37174       -5.50747       -7.88905
C         -1.26326        4.17961       -2.89149
C         -2.25460        3.22467       -2.65801
H         -3.28194        3.55295       -2.63174
C         -4.04814        0.62587       -2.09298
N         -5.58262        2.69024       -2.31288
C         -4.87986        1.77740       -2.21754
S          9.06473      -11.32718       -1.15501
Cl         9.16739      -23.76799        0.88659
N         15.89827      -17.23304       -0.70854
S          9.98577      -15.62502       -0.51472
Cl        12.25714      -24.58855        0.78029
C          7.63131      -13.48429       -0.67907
H          7.36391      -14.51241       -0.47733
C          6.53533       -8.78404       -1.39339
H          7.51679       -8.35460       -1.55396
C          4.62392      -14.05573        1.05988
H          4.68143      -14.79143        0.26609
O         11.75632      -12.23137       -1.21449
C          4.72456      -11.78571        1.82170
H          4.88003      -10.72887        1.64354
C          5.21678      -12.27013       -0.65827
O          9.80736      -18.25226       -0.06798
C          5.01774      -13.34104       -2.98050
H          6.06947      -13.14211       -3.14881
C          6.38610      -10.16155       -1.13046
C         12.34983      -14.59307       -0.86895
H         13.42342      -14.51531       -0.96480
C          5.40154       -8.01076       -1.43854
C         10.11585      -13.90157       -0.81005
C          6.72945      -12.43682       -0.78642
C          4.81252      -12.69784        0.76886
C          7.34426      -11.20562       -1.03977
C          4.42615      -13.00471       -1.76025
C         11.46225      -13.52003       -0.97780
C          8.96430      -13.07512       -0.85582
C         11.72541      -15.81904       -0.61775
C         11.02006      -20.31795        0.17731
C         12.51617      -16.99970       -0.48437
H         13.56409      -16.75985       -0.60513
C          4.34553      -14.47723        2.35395
H          4.20223      -15.53564        2.54639
C         10.85691      -18.87009       -0.04782
C         13.13474      -11.86588       -1.37834
H         13.70307      -12.09091       -0.47226
H         13.57066      -12.38228       -2.23741
C         15.28525      -18.19204       -0.50325
C          2.91274      -14.20486       -3.83910
C         12.22183      -18.31548       -0.24501
C          4.44217      -12.21429        3.11809
H          4.37812      -11.48009        3.91440
C         10.40200      -22.58242        0.59635
C         10.02891      -21.25471        0.40790
H          8.98765      -20.96105        0.44064
C          3.06127      -13.27000       -1.59846
H          2.57182      -13.03333       -0.66111
C          4.24448      -13.56417        3.41084
C          4.27330      -13.93210       -3.99840
H          4.76323      -14.18549       -4.93284
C         12.38213      -20.65503        0.12661
C         13.17755      -19.43166       -0.13588
C          2.11522      -14.87712       -4.92869
H          2.54709      -14.68884       -5.91367
H          1.08006      -14.52859       -4.93850
C          2.32187      -13.85731       -2.61961
H          1.26634      -14.05462       -2.46244
C          3.91570      -14.02829        4.80780
H          4.48956      -14.91896        5.07598
H          4.12821      -13.25329        5.54637
C         11.76387      -22.94045        0.54893
C         12.75521      -21.98552        0.31541
H         13.78255      -22.31379        0.28913
C         14.54873      -19.38673       -0.24973
N         16.08321      -21.45111       -0.02986
C         15.38045      -20.53826       -0.12518
H         -2.63466       -7.96746       -0.78709
H          8.40746       -2.79844        2.44063
H          2.09228      -15.96234       -4.78265
H         13.13525      -10.79337       -1.55540
H          7.64523       -4.47390       -7.23804
H          2.85548      -14.28773        4.89523


