%nprocshared=16
%mem=16GB
%chk=molecCl.chk
# opt ub3lyp/6-31g(d,p) geom=connectivity

IT-4F-cut

0 1
 C                  8.59391600    0.96239300    0.00695500
 H                  8.68495400    2.04100800   -0.01304900
 C                  9.79409100    0.27853900    0.01312400
 C                 11.12504000    0.90133900   -0.00035600
 C                  9.98631200   -1.19464800    0.01386100
 O                  9.14910200   -2.08063400    0.03331000
 C                 12.12552200   -0.19733600   -0.03043600
 C                 11.44928600   -1.42324800   -0.01879100
 C                 13.51982500   -0.19743600   -0.06459500
 H                 14.10519500    0.70842400   -0.07652600
 C                 14.19568600   -1.41923100   -0.08541200
 Cl                15.93655300   -1.38828800   -0.12905000
 C                 12.10589200   -2.63905500   -0.03781000
 H                 11.54769800   -3.56638200   -0.02695500
 C                 13.49780500   -2.63924900   -0.07165200
 Cl                14.33752700   -4.16429100   -0.09648500
 C                 11.45031000    2.24286600    0.02047800
 C                 12.79348000    2.72086500    0.00298100
 N                 13.86742200    3.15009000   -0.01091600
 C                 10.50058600    3.30520000    0.06642700
 N                  9.76427500    4.19696500    0.10434200
 C                  7.23911200    0.54910100    0.01627900
 S                  6.03626300    1.87347000   -0.02141300
 C                  6.60863400   -0.69769500    0.05849400
 H                  7.17586700   -1.61496700    0.08703200
 C                  5.22121800   -0.57922800    0.05660200
 C                  4.73210900    0.74468300    0.01449300
 S                  3.91539800   -1.75824800    0.09141700
 C                  3.32572700    0.80837000   -0.00491500
 C                  2.76334300   -0.45274500    0.03517900
 C                  1.32207800   -0.37893300    0.02536900
 C                  0.98096100    0.99645900   -0.00503400
 C                  2.24409800    1.88736900   -0.02503500
 C                 -0.34611900    1.38357200   -0.03409300
 H                 -0.62729300    2.42946200   -0.06344600
 C                 -1.32208800    0.37893100   -0.02535500
 C                  0.34611000   -1.38357400    0.03410900
 H                  0.62728400   -2.42946400    0.06346200
 C                 -0.98097000   -0.99646100    0.00505100
 C                 -2.24410700   -1.88737100    0.02505500
 C                 -2.76335300    0.45274300   -0.03516600
 C                 -3.32573700   -0.80837200    0.00493000
 S                 -3.91540700    1.75824700   -0.09140600
 C                 -4.73212000   -0.74468400   -0.01448100
 S                 -6.03627500   -1.87347000    0.02142500
 C                 -5.22122700    0.57922700   -0.05659300
 C                 -6.60864300    0.69769600   -0.05848800
 H                 -7.17587600    1.61496800   -0.08702800
 C                 -7.23912200   -0.54909900   -0.01626900
 C                 -8.59392700   -0.96238700   -0.00694400
 H                 -8.68497300   -2.04100300    0.01306200
 C                 -9.79409800   -0.27852700   -0.01311600
 C                -11.12504100   -0.90133300    0.00036700
 C                 -9.98632100    1.19465800   -0.01385400
 O                 -9.14911200    2.08064500   -0.03333600
 C                -12.12553200    0.19734000    0.03041700
 C                -11.44929700    1.42325400    0.01876200
 C                -13.51983600    0.19744400    0.06455600
 H                -14.10520900   -0.70841400    0.07649300
 C                -14.19569700    1.41923900    0.08534000
 Cl               -15.93656400    1.38829600    0.12895100
 C                -12.10590300    2.63906200    0.03774700
 H                -11.54770900    3.56638900    0.02688600
 C                -13.49781700    2.63925600    0.07156700
 C                -11.45027100   -2.24287000   -0.02045300
 C                -12.79341900   -2.72093100   -0.00296300
 N                -13.86732800   -3.15024000    0.01092800
 C                -10.50049500   -3.30516100   -0.06638000
 N                 -9.76411800   -4.19687200   -0.10427600
 C                 -2.39886800   -2.75493900   -1.24318700
 C                 -3.28997900   -3.83473600   -1.25308900
 H                 -3.81038300   -4.11455200   -0.34490300
 C                 -3.51035800   -4.57181500   -2.41180200
 H                 -4.20992900   -5.40109700   -2.38544500
 C                 -2.85087300   -4.26238800   -3.60531600
 C                 -1.96850700   -3.18009500   -3.59394300
 H                 -1.44539200   -2.90743600   -4.50499000
 C                 -1.74578300   -2.43732300   -2.43686700
 H                 -1.05902900   -1.60090400   -2.47405200
 C                 -2.23802000   -2.71593200    1.32541900
 C                 -2.86111100   -2.25800700    2.48829400
 H                 -3.41592200   -1.32770100    2.47524700
 C                 -2.77888400   -2.97945600    3.67762800
 H                 -3.27722600   -2.59723400    4.56265100
 C                 -2.07297500   -4.18122200    3.75071900
 C                 -1.44581200   -4.63530400    2.58538500
 H                 -0.88733300   -5.56584900    2.60696600
 C                 -1.52702500   -3.92051700    1.39583000
 H                 -1.04306600   -4.31423500    0.50973800
 C                  2.23801000    2.71593900   -1.32539300
 C                  1.52703200    3.92053600   -1.39578800
 H                  1.04308900    4.31425500   -0.50968800
 C                  1.44581900    4.63533300   -2.58533700
 H                  0.88735400    5.56588700   -2.60690500
 C                  2.07296300    4.18125000   -3.75068100
 C                  2.77885400    2.97947200   -3.67760600
 H                  3.27718100    2.59724900   -4.56263700
 C                  2.86108100    2.25801300   -2.48827700
 H                  3.41587800    1.32769800   -2.47524400
 C                  2.39885900    2.75492800    1.24321400
 C                  3.28995500    3.83473700    1.25311900
 H                  3.81034700    4.11457000    0.34493100
 C                  3.51033500    4.57180600    2.41183800
 H                  4.20989400    5.40109800    2.38548300
 C                  2.85086600    4.26235800    3.60535500
 C                  1.96851600    3.18005100    3.59397900
 H                  1.44541500    2.90737300    4.50502900
 C                  1.74579100    2.43729000    2.43689700
 H                  1.05905000    1.60086000    2.47408000
 C                 -3.06946700   -5.08392700   -4.85197500
 H                 -2.42173900   -5.96743200   -4.85930400
 H                 -2.84765900   -4.50767600   -5.75276800
 H                 -4.10122400   -5.43674700   -4.91996500
 C                 -2.01248100   -4.98020300    5.02935300
 H                 -2.77232100   -5.76916300    5.03485200
 H                 -2.18939000   -4.34879000    5.90255800
 H                 -1.04040800   -5.46418900    5.15143300
 C                  2.01246900    4.98024100   -5.02930800
 H                  2.77232100    5.76919000   -5.03480900
 H                  1.04040200    5.46424400   -5.15137500
 H                  2.18935900    4.34883200   -5.90252000
 C                  3.06946000    5.08388600    4.85202200
 H                  2.84771200    4.50760700    5.75281100
 H                  2.42168700    5.96735700    4.85938900
 H                  4.10120100    5.43675800    4.91998300
 Cl               -14.33753900    4.16429900    0.09636000

 1 2 1.0 3 2.0 22 1.5
 2
 3 4 1.0 5 1.0
 4 7 1.0 17 2.0
 5 6 2.0 8 1.0
 6
 7 8 1.5 9 1.5
 8 13 2.0
 9 10 1.0 11 1.5
 10
 11 12 1.0 15 1.5
 12
 13 14 1.0 15 1.5
 14
 15 16 1.0
 16
 17 18 1.5 20 1.5
 18 19 3.0
 19
 20 21 3.0
 21
 22 23 1.0 24 1.5
 23 27 1.0
 24 25 1.0 26 1.5
 25
 26 27 1.5 28 1.0
 27 29 1.5
 28 30 1.0
 29 30 2.0 33 1.0
 30 31 1.5
 31 32 1.5 37 1.5
 32 33 1.0 34 2.0
 33 90 1.0 100 1.0
 34 35 1.0 36 1.5
 35
 36 39 1.5 41 1.5
 37 38 1.0 39 2.0
 38
 39 40 1.0
 40 42 1.0 70 1.0 80 1.0
 41 42 2.0 43 1.0
 42 44 1.5
 43 46 1.0
 44 45 1.0 46 1.5
 45 49 1.0
 46 47 1.5
 47 48 1.0 49 1.5
 48
 49 50 1.5
 50 51 1.0 52 2.0
 51
 52 53 1.0 54 1.0
 53 56 1.0 65 2.0
 54 55 2.0 57 1.0
 55
 56 57 1.5 58 1.5
 57 62 2.0
 58 59 1.0 60 1.5
 59
 60 61 1.0 64 1.5
 61
 62 63 1.0 64 1.5
 63
 64 126 1.0
 65 66 1.5 68 1.5
 66 67 3.0
 67
 68 69 3.0
 69
 70 71 1.5 78 1.5
 71 72 1.0 73 1.5
 72
 73 74 1.0 75 1.5
 74
 75 76 1.5 110 1.0
 76 77 1.0 78 1.5
 77
 78 79 1.0
 79
 80 81 1.5 88 1.5
 81 82 1.0 83 1.5
 82
 83 84 1.0 85 1.5
 84
 85 86 1.5 114 1.0
 86 87 1.0 88 1.5
 87
 88 89 1.0
 89
 90 91 1.5 98 1.5
 91 92 1.0 93 1.5
 92
 93 94 1.0 95 1.5
 94
 95 96 1.5 118 1.0
 96 97 1.0 98 1.5
 97
 98 99 1.0
 99
 100 101 1.5 108 1.5
 101 102 1.0 103 1.5
 102
 103 104 1.0 105 1.5
 104
 105 106 1.5 122 1.0
 106 107 1.0 108 1.5
 107
 108 109 1.0
 109
 110 111 1.0 112 1.0 113 1.0
 111
 112
 113
 114 115 1.0 116 1.0 117 1.0
 115
 116
 117
 118 119 1.0 120 1.0 121 1.0
 119
 120
 121
 122 123 1.0 124 1.0 125 1.0
 123
 124
 125
 126

