%chk=molec.chk
# ub3lyp/6-31g(d,p) geom=connectivity polar

IT-4F-cut

-1 2
 C                 -8.60346262    0.99307874    0.00480281
 H                 -8.71185616    2.07125858    0.02450791
 C                 -9.81719663    0.28640432    0.00472196
 C                -11.13471785    0.89616890    0.02107259
 C                 -9.99609526   -1.17960041    0.00113328
 O                 -9.15912799   -2.08048411   -0.01519151
 C                -12.14373403   -0.20156594    0.03751968
 C                -11.46231212   -1.42696857    0.02452790
 C                -13.53883979   -0.20904858    0.06097288
 H                -14.12945303    0.69577013    0.07216655
 C                -14.20914628   -1.44172009    0.07116133
 Cl               -15.95812022   -1.41782632    0.10150121
 C                -12.10876118   -2.64735116    0.03354418
 H                -11.54115847   -3.57096899    0.02235679
 C                -13.50749387   -2.65604573    0.05760461
 Cl               -14.33857922   -4.19500220    0.07014152
 C                -11.47943868    2.25095098    0.01839796
 C                -12.82749401    2.71473489    0.04096470
 N                -13.91392829    3.14104459    0.05941232
 C                -10.54966361    3.33177486   -0.01019765
 N                 -9.83895999    4.25752765   -0.03382359
 C                 -7.25877581    0.58761194   -0.01216831
 S                 -6.03937215    1.91178229    0.01209292
 C                 -6.61919954   -0.66865933   -0.05033924
 H                 -7.19410549   -1.58391929   -0.06923371
 C                 -5.23567820   -0.55420280   -0.05617570
 C                 -4.72965139    0.77250055   -0.02326328
 S                 -3.93118575   -1.74412664   -0.08849356
 C                 -3.33078998    0.82715483   -0.00962191
 C                 -2.76080742   -0.44463206   -0.04363001
 C                 -1.33325112   -0.37824512   -0.03031946
 C                 -0.97713683    1.00288312   -0.00356609
 C                 -2.23905008    1.89991256    0.00213765
 C                  0.34830808    1.38695197    0.03094679
 H                  0.63110229    2.43451430    0.06094063
 C                  1.33325298    0.37824680    0.03033684
 C                 -0.34830578   -1.38695003   -0.03092924
 H                 -0.63109974   -2.43451244   -0.06092475
 C                  0.97713851   -1.00288059    0.00358540
 C                  2.23905084   -1.89990999   -0.00211855
 C                  2.76080843    0.44463389    0.04364248
 C                  3.33079055   -0.82715234    0.00963334
 S                  3.93118650    1.74412892    0.08849667
 C                  4.72965131   -0.77249842    0.02326509
 S                  6.03937167   -1.91178032   -0.01210110
 C                  5.23567869    0.55420485    0.05617315
 C                  6.61920044    0.66866143    0.05032908
 H                  7.19410808    1.58392119    0.06921978
 C                  7.25877650   -0.58761076    0.01216028
 C                  8.60346410   -0.99307781   -0.00481179
 H                  8.71185886   -2.07125858   -0.02451714
 C                  9.81719853   -0.28640246   -0.00473239
 C                 11.13471785   -0.89616958   -0.02108489
 C                  9.99609902    1.17960212   -0.00114358
 O                  9.15913254    2.08048724    0.01518348
 C                 12.14373678    0.20156309   -0.03753445
 C                 11.46231678    1.42696741   -0.02454142
 C                 13.53884259    0.20904328   -0.06099083
 H                 14.12945441   -0.69577652   -0.07218571
 C                 14.20915136    1.44171368   -0.07118070
 Cl                15.95812514    1.41781663   -0.10152423
 C                 12.10876833    2.64734901   -0.03355910
 H                 11.54116731    3.57096810   -0.02237055
 C                 13.50750117    2.65604078   -0.05762245
 C                 11.47942931   -2.25095356   -0.01841178
 C                 12.82748015   -2.71474989   -0.04098284
 N                 13.91391528   -3.14105757   -0.05943436
 C                 10.54964335   -3.33176792    0.01018293
 N                  9.83891200   -4.25749980    0.03380811
 C                  2.38300136   -2.75720778    1.27480104
 C                  3.29309761   -3.82506628    1.30573672
 H                  3.83706626   -4.09615550    0.40672205
 C                  3.50525774   -4.55507178    2.47242568
 H                  4.22210203   -5.37250472    2.46266549
 C                  2.81694353   -4.25182673    3.65431585
 C                  1.91450752   -3.18421239    3.62207952
 H                  1.36755792   -2.91853520    4.52356719
 C                  1.70050042   -2.44742811    2.45635799
 H                  0.99612629   -1.62327652    2.47400319
 C                  2.23222079   -2.75124964   -1.28789083
 C                  2.85294855   -2.31071819   -2.46194942
 H                  3.40693100   -1.37817464   -2.46116257
 C                  2.77046210   -3.05372121   -3.64000188
 H                  3.26774063   -2.68547702   -4.53402053
 C                  2.06593568   -4.26054872   -3.69153457
 C                  1.43970467   -4.69663939   -2.51666827
 H                  0.88062554   -5.62943367   -2.52246690
 C                  1.52201356   -3.96022855   -1.33750829
 H                  1.03788361   -4.33724622   -0.44216661
 C                 -2.23222512    2.75124947    1.28791218
 C                 -1.52204231    3.96024334    1.33752447
 H                 -1.03792899    4.33727227    0.44217831
 C                 -1.43973867    4.69665509    2.51668415
 H                 -0.88067880    5.62946087    2.52247839
 C                 -2.06595082    4.26055103    3.69155543
 C                 -2.77045375    3.05370983    3.64002807
 H                 -3.26771760    2.68545534    4.53405057
 C                 -2.85293551    2.31070562    2.46197587
 H                 -3.40689967    1.37815103    2.46119313
 C                 -2.38299619    2.75721262   -1.27478092
 C                 -3.29312129    3.82504617   -1.30573390
 H                 -3.83711916    4.09611655   -0.40673108
 C                 -3.50527506    4.55504886   -2.47242611
 H                 -4.22214237    5.37246165   -2.46268008
 C                 -2.81692575    4.25182623   -3.65430115
 C                 -1.91446162    3.18423597   -3.62204797
 H                 -1.36748490    2.91857586   -4.52352417
 C                 -1.70046073    2.44745409   -2.45632410
 H                 -0.99606389    1.62332114   -2.47395530
 C                  3.03050054   -5.06446591    4.90917962
 H                  2.47848174   -6.01206448    4.87009936
 H                  2.69035532   -4.52440182    5.79749062
 H                  4.08745434   -5.31335689    5.04853418
 C                  2.00726495   -5.08173528   -4.95755425
 H                  2.78811913   -5.85263132   -4.96788918
 H                  2.15371281   -4.45895708   -5.84498127
 H                  1.04541579   -5.59440266   -5.05827456
 C                 -2.00728590    5.08173805    4.95757493
 H                 -2.78815437    5.85261941    4.96791611
 H                 -1.04544562    5.59442341    5.05828825
 H                 -2.15371541    4.45895675    5.84500270
 C                 -3.03047419    5.06446402   -4.90916709
 H                 -2.69033919    4.52439199   -5.79747724
 H                 -2.47844049    6.01205416   -4.87009194
 H                 -4.08742436    5.31337038   -5.04851955
 Cl                14.33858938    4.19499575   -0.07016112

 1 2 1.0 3 2.0 22 1.5
 2
 3 4 1.0 5 1.0
 4 7 1.0 17 2.0
 5 6 2.0 8 1.0
 6
 7 8 1.5 9 1.5
 8 13 2.0
 9 10 1.0 11 1.5
 10
 11 12 1.0 15 1.5
 12
 13 14 1.0 15 1.5
 14
 15 16 1.0
 16
 17 18 1.5 20 1.5
 18 19 3.0
 19
 20 21 3.0
 21
 22 23 1.0 24 1.5
 23 27 1.0
 24 25 1.0 26 1.5
 25
 26 27 1.5 28 1.0
 27 29 1.5
 28 30 1.0
 29 30 2.0 33 1.0
 30 31 1.5
 31 32 1.5 37 1.5
 32 33 1.0 34 2.0
 33 90 1.0 100 1.0
 34 35 1.0 36 1.5
 35
 36 39 1.5 41 1.5
 37 38 1.0 39 2.0
 38
 39 40 1.0
 40 42 1.0 70 1.0 80 1.0
 41 42 2.0 43 1.0
 42 44 1.5
 43 46 1.0
 44 45 1.0 46 1.5
 45 49 1.0
 46 47 1.5
 47 48 1.0 49 1.5
 48
 49 50 1.5
 50 51 1.0 52 2.0
 51
 52 53 1.0 54 1.0
 53 56 1.0 65 2.0
 54 55 2.0 57 1.0
 55
 56 57 1.5 58 1.5
 57 62 2.0
 58 59 1.0 60 1.5
 59
 60 61 1.0 64 1.5
 61
 62 63 1.0 64 1.5
 63
 64 126 1.0
 65 66 1.5 68 1.5
 66 67 3.0
 67
 68 69 3.0
 69
 70 71 1.5 78 1.5
 71 72 1.0 73 1.5
 72
 73 74 1.0 75 1.5
 74
 75 76 1.5 110 1.0
 76 77 1.0 78 1.5
 77
 78 79 1.0
 79
 80 81 1.5 88 1.5
 81 82 1.0 83 1.5
 82
 83 84 1.0 85 1.5
 84
 85 86 1.5 114 1.0
 86 87 1.0 88 1.5
 87
 88 89 1.0
 89
 90 91 1.5 98 1.5
 91 92 1.0 93 1.5
 92
 93 94 1.0 95 1.5
 94
 95 96 1.5 118 1.0
 96 97 1.0 98 1.5
 97
 98 99 1.0
 99
 100 101 1.5 108 1.5
 101 102 1.0 103 1.5
 102
 103 104 1.0 105 1.5
 104
 105 106 1.5 122 1.0
 106 107 1.0 108 1.5
 107
 108 109 1.0
 109
 110 111 1.0 112 1.0 113 1.0
 111
 112
 113
 114 115 1.0 116 1.0 117 1.0
 115
 116
 117
 118 119 1.0 120 1.0 121 1.0
 119
 120
 121
 122 123 1.0 124 1.0 125 1.0
 123
 124
 125
 126

