%chk=molec.chk
# ub3lyp/6-311g(d,p) geom=connectivity sp polar

IT-4F-cut

0 1
 C                  8.59391716    0.96239324    0.00695494
 H                  8.68495507    2.04100850   -0.01304881
 C                  9.79409195    0.27853870    0.01312415
 C                 11.12504058    0.90133934   -0.00035610
 C                  9.98631300   -1.19464765    0.01386080
 O                  9.14910257   -2.08063464    0.03330951
 C                 12.12552309   -0.19733622   -0.03043550
 C                 11.44928716   -1.42324793   -0.01879072
 C                 13.51982624   -0.19743639   -0.06459524
 H                 14.10519618    0.70842424   -0.07652566
 C                 14.19568719   -1.41923090   -0.08541173
 Cl                15.93655428   -1.38828783   -0.12904974
 C                 12.10589320   -2.63905561   -0.03781004
 H                 11.54769884   -3.56638270   -0.02695547
 C                 13.49780654   -2.63924880   -0.07165171
 Cl                14.33752828   -4.16429114   -0.09648496
 C                 11.45031133    2.24286620    0.02047771
 C                 12.79348061    2.72086496    0.00298070
 N                 13.86742324    3.15009045   -0.01091635
 C                 10.50058644    3.30520045    0.06642724
 N                  9.76427562    4.19696552    0.10434202
 C                  7.23911238    0.54910071    0.01627864
 S                  6.03626339    1.87347005   -0.02141257
 C                  6.60863463   -0.69769550    0.05849425
 H                  7.17586734   -1.61496760    0.08703193
 C                  5.22121822   -0.57922796    0.05660170
 C                  4.73210977    0.74468309    0.01449324
 S                  3.91539836   -1.75824832    0.09141726
 C                  3.32572764    0.80837029   -0.00491530
 C                  2.76334348   -0.45274458    0.03517932
 C                  1.32207860   -0.37893292    0.02536896
 C                  0.98096079    0.99645952   -0.00503442
 C                  2.24409782    1.88736900   -0.02503526
 C                 -0.34611939    1.38357203   -0.03409339
 H                 -0.62729332    2.42946233   -0.06344635
 C                 -1.32208795    0.37893123   -0.02535476
 C                  0.34611021   -1.38357379    0.03410887
 H                  0.62728438   -2.42946420    0.06346164
 C                 -0.98097049   -0.99646147    0.00505091
 C                 -2.24410749   -1.88737068    0.02505469
 C                 -2.76335293    0.45274289   -0.03516559
 C                 -3.32573741   -0.80837214    0.00492970
 S                 -3.91540701    1.75824691   -0.09140634
 C                 -4.73211990   -0.74468399   -0.01448074
 S                 -6.03627503   -1.87346972    0.02142498
 C                 -5.22122736    0.57922744   -0.05659263
 C                 -6.60864357    0.69769626   -0.05848817
 H                 -7.17587686    1.61496808   -0.08702783
 C                 -7.23912222   -0.54909898   -0.01626874
 C                 -8.59392790   -0.96238724   -0.00694428
 H                 -8.68497401   -2.04100328    0.01306173
 C                 -9.79409894   -0.27852697   -0.01311567
 C                -11.12504169   -0.90133290    0.00036688
 C                 -9.98632178    1.19465826   -0.01385365
 O                 -9.14911257    2.08064560   -0.03333581
 C                -12.12553245    0.19734027    0.03041734
 C                -11.44929769    1.42325435    0.01876208
 C                -13.51983724    0.19744354    0.06455640
 H                -14.10520984   -0.70841431    0.07649321
 C                -14.19569787    1.41923885    0.08534012
 Cl               -15.93656571    1.38829652    0.12895151
 C                -12.10590437    2.63906222    0.03774738
 H                -11.54770979    3.56638903    0.02688585
 C                -13.49781775    2.63925642    0.07156741
 C                -11.45027159   -2.24287046   -0.02045321
 C                -12.79341949   -2.72093155   -0.00296333
 N                -13.86732884   -3.15024048    0.01092757
 C                -10.50049596   -3.30516086   -0.06637980
 N                 -9.76411904   -4.19687219   -0.10427579
 C                 -2.39886833   -2.75493954   -1.24318745
 C                 -3.28997965   -3.83473587   -1.25308958
 H                 -3.81038351   -4.11455248   -0.34490277
 C                 -3.51035831   -4.57181502   -2.41180214
 H                 -4.20992910   -5.40109723   -2.38544507
 C                 -2.85087294   -4.26238880   -3.60531621
 C                 -1.96850677   -3.18009535   -3.59394283
 H                 -1.44539239   -2.90743574   -4.50499076
 C                 -1.74578344   -2.43732355   -2.43686695
 H                 -1.05902897   -1.60090458   -2.47405181
 C                 -2.23801993   -2.71593202    1.32541916
 C                 -2.86111088   -2.25800672    2.48829377
 H                 -3.41592203   -1.32770070    2.47524692
 C                 -2.77888397   -2.97945620    3.67762812
 H                 -3.27722661   -2.59723446    4.56265169
 C                 -2.07297552   -4.18122218    3.75071934
 C                 -1.44581226   -4.63530412    2.58538542
 H                 -0.88733272   -5.56584979    2.60696584
 C                 -1.52702480   -3.92051742    1.39583030
 H                 -1.04306647   -4.31423553    0.50973802
 C                  2.23800990    2.71593943   -1.32539315
 C                  1.52703258    3.92053603   -1.39578832
 H                  1.04308912    4.31425488   -0.50968840
 C                  1.44581909    4.63533294   -2.58533723
 H                  0.88735386    5.56588752   -2.60690509
 C                  2.07296353    4.18125006   -3.75068094
 C                  2.77885382    2.97947231   -3.67760586
 H                  3.27718106    2.59724906   -4.56263748
 C                  2.86108151    2.25801297   -2.48827761
 H                  3.41587778    1.32769816   -2.47524370
 C                  2.39885921    2.75492863    1.24321417
 C                  3.28995533    3.83473682    1.25311932
 H                  3.81034736    4.11457017    0.34493117
 C                  3.51033512    4.57180645    2.41183811
 H                  4.20989420    5.40109860    2.38548327
 C                  2.85086641    4.26235795    3.60535527
 C                  1.96851592    3.18005132    3.59397895
 H                  1.44541522    2.90737347    4.50502931
 C                  1.74579138    2.43728978    2.43689712
 H                  1.05904966    1.60086054    2.47408026
 C                 -3.06946729   -5.08392782   -4.85197548
 H                 -2.42173955   -5.96743293   -4.85930482
 H                 -2.84765894   -4.50767669   -5.75276800
 H                 -4.10122384   -5.43674774   -4.91996538
 C                 -2.01248162   -4.98020304    5.02935315
 H                 -2.77232157   -5.76916377    5.03485279
 H                 -2.18939061   -4.34878999    5.90255871
 H                 -1.04040821   -5.46418966    5.15143370
 C                  2.01246914    4.98024159   -5.02930808
 H                  2.77232149    5.76919038   -5.03480944
 H                  1.04040209    5.46424448   -5.15137494
 H                  2.18935913    4.34883243   -5.90252035
 C                  3.06946055    5.08388595    4.85202189
 H                  2.84771207    4.50760710    5.75281161
 H                  2.42168683    5.96735710    4.85938927
 H                  4.10120104    5.43675795    4.91998342
 Cl               -14.33753987    4.16429926    0.09635981

 1 2 1.0 3 2.0 22 1.5
 2
 3 4 1.0 5 1.0
 4 7 1.0 17 2.0
 5 6 2.0 8 1.0
 6
 7 8 1.5 9 1.5
 8 13 1.5
 9 10 1.0 11 2.0
 10
 11 12 1.0 15 1.5
 12
 13 14 1.0 15 2.0
 14
 15 16 1.0
 16
 17 18 1.5 20 1.5
 18 19 3.0
 19
 20 21 3.0
 21
 22 23 1.0 24 1.5
 23 27 1.0
 24 25 1.0 26 1.5
 25
 26 27 1.5 28 1.0
 27 29 1.5
 28 30 1.0
 29 30 1.5 33 1.0
 30 31 1.5
 31 32 1.5 37 1.5
 32 33 1.0 34 2.0
 33 90 1.0 100 1.0
 34 35 1.0 36 1.5
 35
 36 39 1.5 41 1.5
 37 38 1.0 39 2.0
 38
 39 40 1.0
 40 42 1.0 70 1.0 80 1.0
 41 42 1.5 43 1.0
 42 44 1.5
 43 46 1.0
 44 45 1.0 46 1.5
 45 49 1.0
 46 47 1.5
 47 48 1.0 49 1.5
 48
 49 50 1.5
 50 51 1.0 52 2.0
 51
 52 53 1.0 54 1.0
 53 56 1.0 65 2.0
 54 55 2.0 57 1.0
 55
 56 57 1.5 58 1.5
 57 62 1.5
 58 59 1.0 60 2.0
 59
 60 61 1.0 64 1.5
 61
 62 63 1.0 64 2.0
 63
 64 126 1.0
 65 66 1.5 68 1.5
 66 67 3.0
 67
 68 69 3.0
 69
 70 71 1.5 78 1.5
 71 72 1.0 73 1.5
 72
 73 74 1.0 75 1.5
 74
 75 76 1.5 110 1.0
 76 77 1.0 78 1.5
 77
 78 79 1.0
 79
 80 81 1.5 88 1.5
 81 82 1.0 83 1.5
 82
 83 84 1.0 85 1.5
 84
 85 86 1.5 114 1.0
 86 87 1.0 88 1.5
 87
 88 89 1.0
 89
 90 91 1.5 98 1.5
 91 92 1.0 93 1.5
 92
 93 94 1.0 95 1.5
 94
 95 96 1.5 118 1.0
 96 97 1.0 98 1.5
 97
 98 99 1.0
 99
 100 101 1.5 108 1.5
 101 102 1.0 103 1.5
 102
 103 104 1.0 105 1.5
 104
 105 106 1.5 122 1.0
 106 107 1.0 108 1.5
 107
 108 109 1.0
 109
 110 111 1.0 112 1.0 113 1.0
 111
 112
 113
 114 115 1.0 116 1.0 117 1.0
 115
 116
 117
 118 119 1.0 120 1.0 121 1.0
 119
 120
 121
 122 123 1.0 124 1.0 125 1.0
 123
 124
 125
 126

